&NAM_OASIS IL_NB_TIME_STEPS=20,
           DELTA_T=90,
           DATA_FILENAME='grid_toy_model.nc' /

&NAM_FCT_SEND CTYPE_FCT='SINUS',
              VALUE=10 /

&NAM_RECV_FIELDS NB_RECV_FIELDS=2,
                 CRCVFIELDS(1)='VARRCV01',
                 CRCVFIELDS(2)='VARRCV02' /

&NAM_SEND_FIELDS NB_SEND_FIELDS=2, 
                 CSNDFIELDS(1)='VARSND01', 
                 CSNDFIELDS(2)='VARSND02' /
