&NAM_OASIS IL_NB_TIME_STEPS=10,
           DELTA_T=360,
           DATA_FILENAME='grid_toy_model.nc' /

&NAM_FCT_SEND CTYPE_FCT='FILES',
              CNAME_FILE='toy_coupled_field.nc',
              VALUE=10 /

&NAM_RECV_FIELDS NB_RECV_FIELDS=1,
                 CRCVFIELDS(1)='TOY__CHA' /

&NAM_SEND_FIELDS NB_SEND_FIELDS=2, 
                 CSNDFIELDS(1)='TOY_U10M', 
                 CSNDFIELDS(2)='TOY_V10M' /
