&NAM_OASIS IL_NB_TIME_STEPS=20,
           DELTA_T=180,
           DATA_FILENAME='grid_toy_model.nc' /

&NAM_FCT_SEND CTYPE_FCT='FILES',
              CNAME_FILE='toy_coupled_field.nc',
              VALUE=10 /

&NAM_RECV_FIELDS NB_RECV_FIELDS=2,
                 CRCVFIELDS(1)='TOY_CDIR',
                 CRCVFIELDS(2)='TOY_SDIR' /

&NAM_SEND_FIELDS NB_SEND_FIELDS=2, 
                 CSNDFIELDS(1)='TOY___UZ', 
                 CSNDFIELDS(2)='TOY___VZ' /
