$
   F F     Water levels
   F F     Currents
   T T     Winds
   F F     Ice concentrations
   T T     Atmospheric momentum
   T T     Air density
   F       Assimilation data : Mean parameters
   F       Assimilation data : 1-D spectra
   F       Assimilation data : 2-D spectra
$
   20010101 000000
   20010101 060000
$
   2
$
   20010101 000000   3600  20010101 060000
   N
   HS WND T02 DIR UST CHA TAU 
$
   20010101 000000   3600  20010101 060000
    -16.4  59.8  'NorthWest '
     -2.5  60.5  'NorthEast '
      0.0   0.0  'STOPSTRING'
$
   20010101 000000   0  20010101 000000
$
   20010101 000000   0  20010101 000000
$
   20010101 000000   3600  20010101 060000
$
   20010101 000000   0  20010101 000000
$
   'WND' 20010101 000000   20.    180.    0.0
   'TAU' 20010101 000000   1.15    180. 
   'RHO' 20010101 000000   1.225    180.    
   'STP'
$
